// This geofile was created by '/home/l.martire/Documents/SPECFEM/specfem-dg-master/EXAMPLES/mountain_scattering_with_mountains_3.00L0/prepare_geofile'.
// Synthetic topography, LTopo=1003=0.33004*L0.


// Display. //---------------//
General.Axes = 1; // Show axes.
Mesh.Lines = 1; // Display lines.
Geometry.LineNumbers = 1; // Display line numbers.
Mesh.LineNumbers = 0; // Display line numbers.
Mesh.Points = 0; // Display points.
Geometry.PointNumbers = 0; // Display point numbers.
Mesh.PointNumbers = 0; // Display point numbers
Mesh.SurfaceEdges = 1; // Display edges.
Mesh.SurfaceFaces = 1; // Display surfaces.
Geometry.SurfaceNumbers = 1; // Display surface numbers.
Mesh.SurfaceNumbers = 0; // Display surface numbers.
// Elements. //--------------//
Mesh.SubdivisionAlgorithm = 1; // Meshing algorithm: all quads.
Mesh.RecombineAll = 1; // Recombine all triangular elements.
// Meshing algorithm. //-----//
Mesh.Algorithm = 5; // 1: MeshAdapt. 5: Delaunay for quads. 8: Delaunay (experimental). 9: structured (packing of parallelograms, experimental).
Mesh.ElementOrder = 1; // Element order.
Mesh.RandomFactor = 0.000100; // Perturbate every points positions in order to avoid 3 aligned points. Default is at 1e-9, maximum is 1e-3.
// Some Variables. //--------//
dx_int_1 = 1519.515000;
dx_int_2 = 110.000000;
dx_int_3 = 132.000000;
// Geometry. //--------------//
Point(1) = {-23000.000000, -15000.000000, 0};
Point(2) = {23000.000000, -15000.000000, 0};
Point(3) = {-23000.000000, 0.000000, 0};
Point(4) = {23000.000000, 0.000000, 0};
Point(5) = {-23000.000000, 15000.000000, 0};
Point(6) = {23000.000000, 15000.000000, 0};
Line(1) = {1, 2};
Line(2) = {5, 6};
Line(3) = {1, 3};
Line(4) = {3, 5};
Line(5) = {2, 4};
Line(6) = {4, 6};
Point(7) = {-18054.000000, 0.000000, 0};
Point(8) = {-18001.133236, 4.541925, 0};
Point(9) = {-17948.266471, 17.674083, 0};
Point(10) = {-17895.399707, 37.969270, 0};
Point(11) = {-17842.532943, 63.221800, 0};
Point(12) = {-17789.666179, 90.687225, 0};
Point(13) = {-17736.799414, 117.380598, 0};
Point(14) = {-17683.932650, 140.400879, 0};
Point(15) = {-17631.065886, 157.246219, 0};
Point(16) = {-17578.199122, 166.085865, 0};
Point(17) = {-17525.332357, 165.959123, 0};
Point(18) = {-17472.465593, 156.879766, 0};
Point(19) = {-17419.598829, 139.834541, 0};
Point(20) = {-17366.732064, 116.675925, 0};
Point(21) = {-17313.865300, 89.920802, 0};
Point(22) = {-17260.998536, 62.476921, 0};
Point(23) = {-17208.131772, 37.326888, 0};
Point(24) = {-17155.265007, 17.204014, 0};
Point(25) = {-17102.398243, 4.295255, 0};
Point(26) = {-17049.531479, 0.003537, 0};
Point(27) = {-16996.664714, 4.795285, 0};
Point(28) = {-16943.797950, 18.149731, 0};
Point(29) = {-16890.931186, 38.615512, 0};
Point(30) = {-16838.064422, 63.968403, 0};
Point(31) = {-16785.197657, 91.453047, 0};
Point(32) = {-16732.330893, 118.082410, 0};
Point(33) = {-16679.464129, 140.962408, 0};
Point(34) = {-16626.597365, 157.606438, 0};
Point(35) = {-16573.730600, 166.205626, 0};
Point(36) = {-16520.863836, 165.825409, 0};
Point(37) = {-16467.997072, 156.507110, 0};
Point(38) = {-16415.130307, 139.263443, 0};
Point(39) = {-16362.263543, 115.968452, 0};
Point(40) = {-16309.396779, 89.153842, 0};
Point(41) = {-16256.530015, 61.733828, 0};
Point(42) = {-16203.663250, 36.688421, 0};
Point(43) = {-16150.796486, 16.739562, 0};
Point(44) = {-16097.929722, 4.055294, 0};
Point(45) = {-16045.062958, 0.014147, 0};
Point(46) = {-15992.196193, 5.055312, 0};
Point(47) = {-15939.329429, 18.630916, 0};
Point(48) = {-15886.462665, 39.265559, 0};
Point(49) = {-15833.595900, 64.716665, 0};
Point(50) = {-15780.729136, 92.218204, 0};
Point(51) = {-15727.862372, 118.781303, 0};
Point(52) = {-15674.995608, 141.519082, 0};
Point(53) = {-15622.128843, 157.960393, 0};
Point(54) = {-15569.262079, 166.318394, 0};
Point(55) = {-15516.395315, 165.684735, 0};
Point(56) = {-15463.528551, 156.128282, 0};
Point(57) = {-15410.661786, 138.687632, 0};
Point(58) = {-15357.795022, 115.258238, 0};
Point(59) = {-15304.928258, 88.386410, 0};
Point(60) = {-15252.061493, 60.992583, 0};
Point(61) = {-15199.194729, 36.053923, 0};
Point(62) = {-15146.327965, 16.280766, 0};
Point(63) = {-15093.461201, 3.822064, 0};
Point(64) = {-15040.594436, 0.031829, 0};
Point(65) = {-14987.727672, 5.321985, 0};
Point(66) = {-14934.860908, 19.117598, 0};
Point(67) = {-14881.994143, 39.919357, 0};
Point(68) = {-14829.127379, 65.466524, 0};
Point(69) = {-14776.260615, 92.982629, 0};
Point(70) = {-14723.393851, 119.477217, 0};
Point(71) = {-14670.527086, 142.070852, 0};
Point(72) = {-14617.660322, 158.308054, 0};
Point(73) = {-14564.793558, 166.424161, 0};
Point(74) = {-14511.926794, 165.537113, 0};
Point(75) = {-14459.060029, 155.743315, 0};
Point(76) = {-14406.193265, 138.107159, 0};
Point(77) = {-14353.326501, 114.545344, 0};
Point(78) = {-14300.459736, 87.618573, 0};
Point(79) = {-14247.592972, 60.253251, 0};
Point(80) = {-14194.726208, 35.423447, 0};
Point(81) = {-14141.859444, 15.827667, 0};
Point(82) = {-14088.992679, 3.595584, 0};
Point(83) = {-14036.125915, 0.056582, 0};
Point(84) = {-13983.259151, 5.595282, 0};
Point(85) = {-13930.392387, 19.609735, 0};
Point(86) = {-13877.525622, 40.576850, 0};
Point(87) = {-13824.658858, 66.217917, 0};
Point(88) = {-13771.792094, 93.746259, 0};
Point(89) = {-13718.925329, 120.170094, 0};
Point(90) = {-13666.058565, 142.617673, 0};
Point(91) = {-13613.191801, 158.649390, 0};
Point(92) = {-13560.325037, 166.522917, 0};
Point(93) = {-13507.458272, 165.382555, 0};
Point(94) = {-13454.591508, 155.352241, 0};
Point(95) = {-13401.724744, 137.522071, 0};
Point(96) = {-13348.857980, 113.829829, 0};
Point(97) = {-13295.991215, 86.850393, 0};
Point(98) = {-13243.124451, 59.515893, 0};
Point(99) = {-13190.257687, 34.797046, 0};
Point(100) = {-13137.390922, 15.380301, 0};
Point(101) = {-13084.524158, 3.375873, 0};
Point(102) = {-13031.657394, 0.088404, 0};
Point(103) = {-12978.790630, 5.875178, 0};
Point(104) = {-12925.923865, 20.107287, 0};
Point(105) = {-12873.057101, 41.237983, 0};
Point(106) = {-12820.190337, 66.970779, 0};
Point(107) = {-12767.323572, 94.509029, 0};
Point(108) = {-12714.456808, 120.859874, 0};
Point(109) = {-12661.590044, 143.159498, 0};
Point(110) = {-12608.723280, 158.984374, 0};
Point(111) = {-12555.856515, 166.614654, 0};
Point(112) = {-12502.989751, 165.221075, 0};
Point(113) = {-12450.122987, 154.955094, 0};
Point(114) = {-12397.256223, 136.932418, 0};
Point(115) = {-12344.389458, 113.111755, 0};
Point(116) = {-12291.522694, 86.081938, 0};
Point(117) = {-12238.655930, 58.780572, 0};
Point(118) = {-12185.789165, 34.174775, 0};
Point(119) = {-12132.922401, 14.938707, 0};
Point(120) = {-12080.055637, 3.162949, 0};
Point(121) = {-12027.188873, 0.127292, 0};
Point(122) = {-11974.322108, 6.161650, 0};
Point(123) = {-11921.455344, 20.610210, 0};
Point(124) = {-11868.588580, 41.902699, 0};
Point(125) = {-11815.721816, 67.725046, 0};
Point(126) = {-11762.855051, 95.270875, 0};
Point(127) = {-11709.988287, 121.546499, 0};
Point(128) = {-11657.121523, 143.696281, 0};
Point(129) = {-11604.254758, 159.312977, 0};
Point(130) = {-11551.387994, 166.699364, 0};
Point(131) = {-11498.521230, 165.052686, 0};
Point(132) = {-11445.654466, 154.551906, 0};
Point(133) = {-11392.787701, 136.338250, 0};
Point(134) = {-11339.920937, 112.391181, 0};
Point(135) = {-11287.054173, 85.313271, 0};
Point(136) = {-11234.187408, 58.047350, 0};
Point(137) = {-11181.320644, 33.556684, 0};
Point(138) = {-11128.453880, 14.502923, 0};
Point(139) = {-11075.587116, 2.956832, 0};
Point(140) = {-11022.720351, 0.173242, 0};
Point(141) = {-10969.853587, 6.454675, 0};
Point(142) = {-10916.986823, 21.118463, 0};
Point(143) = {-10864.120059, 42.570943, 0};
Point(144) = {-10811.253294, 68.480656, 0};
Point(145) = {-10758.386530, 96.031731, 0};
Point(146) = {-10705.519766, 122.229912, 0};
Point(147) = {-10652.653001, 144.227977, 0};
Point(148) = {-10599.786237, 159.635171, 0};
Point(149) = {-10546.919473, 166.777040, 0};
Point(150) = {-10494.052709, 164.877403, 0};
Point(151) = {-10441.185944, 154.142713, 0};
Point(152) = {-10388.319180, 135.739618, 0};
Point(153) = {-10335.452416, 111.668170, 0};
Point(154) = {-10282.585652, 84.544457, 0};
Point(155) = {-10229.718887, 57.316289, 0};
Point(156) = {-10176.852123, 32.942828, 0};
Point(157) = {-10123.985359, 14.072985, 0};
Point(158) = {-10071.118594, 2.757538, 0};
Point(159) = {-10018.251830, 0.226252, 0};
Point(160) = {-9965.385066, 6.754227, 0};
Point(161) = {-9912.518302, 21.632002, 0};
Point(162) = {-9859.651537, 43.242657, 0};
Point(163) = {-9806.784773, 69.237544, 0};
Point(164) = {-9753.918009, 96.791534, 0};
Point(165) = {-9701.051245, 122.910054, 0};
Point(166) = {-9648.184480, 144.754540, 0};
Point(167) = {-9595.317716, 159.950929, 0};
Point(168) = {-9542.450952, 166.847675, 0};
Point(169) = {-9489.584187, 164.695239, 0};
Point(170) = {-9436.717423, 153.727548, 0};
Point(171) = {-9383.850659, 135.136572, 0};
Point(172) = {-9330.983895, 110.942782, 0};
Point(173) = {-9278.117130, 83.775562, 0};
Point(174) = {-9225.250366, 56.587451, 0};
Point(175) = {-9172.383602, 32.333257, 0};
Point(176) = {-9119.516837, 13.648929, 0};
Point(177) = {-9066.650073, 2.565084, 0};
Point(178) = {-9013.783309, 0.286316, 0};
Point(179) = {-8960.916545, 7.060281, 0};
Point(180) = {-8908.049780, 22.150783, 0};
Point(181) = {-8855.183016, 43.917786, 0};
Point(182) = {-8802.316252, 69.995646, 0};
Point(183) = {-8749.449488, 97.550219, 0};
Point(184) = {-8696.582723, 123.586868, 0};
Point(185) = {-8643.715959, 145.275927, 0};
Point(186) = {-8590.849195, 160.260224, 0};
Point(187) = {-8537.982430, 166.911265, 0};
Point(188) = {-8485.115666, 164.506212, 0};
Point(189) = {-8432.248902, 153.306447, 0};
Point(190) = {-8379.382138, 134.529163, 0};
Point(191) = {-8326.515373, 110.215078, 0};
Point(192) = {-8273.648609, 83.006651, 0};
Point(193) = {-8220.781845, 55.860898, 0};
Point(194) = {-8167.915081, 31.728023, 0};
Point(195) = {-8115.048316, 13.230792, 0};
Point(196) = {-8062.181552, 2.379487, 0};
Point(197) = {-8009.314788, 0.353429, 0};
Point(198) = {-7956.448023, 7.372810, 0};
Point(199) = {-7903.581259, 22.674764, 0};
Point(200) = {-7850.714495, 44.596271, 0};
Point(201) = {-7797.847731, 70.754898, 0};
Point(202) = {-7744.980966, 98.307722, 0};
Point(203) = {-7692.114202, 124.260297, 0};
Point(204) = {-7639.247438, 145.792093, 0};
Point(205) = {-7586.380673, 160.563030, 0};
Point(206) = {-7533.513909, 166.967802, 0};
Point(207) = {-7480.647145, 164.310336, 0};
Point(208) = {-7427.780381, 152.879446, 0};
Point(209) = {-7374.913616, 133.917443, 0};
Point(210) = {-7322.046852, 109.485121, 0};
Point(211) = {-7269.180088, 82.237789, 0};
Point(212) = {-7216.313324, 55.136690, 0};
Point(213) = {-7163.446559, 31.127177, 0};
Point(214) = {-7110.579795, 12.818608, 0};
Point(215) = {-7057.713031, 2.200761, 0};
Point(216) = {-7004.846266, 0.427585, 0};
Point(217) = {-6951.979502, 7.691790, 0};
Point(218) = {-6899.112738, 23.203899, 0};
Point(219) = {-6846.245974, 45.278056, 0};
Point(220) = {-6793.379209, 71.515236, 0};
Point(221) = {-6740.512445, 99.063979, 0};
Point(222) = {-6687.645681, 124.930283, 0};
Point(223) = {-6634.778917, 146.302994, 0};
Point(224) = {-6581.912152, 160.859321, 0};
Point(225) = {-6529.045388, 167.017282, 0};
Point(226) = {-6476.178624, 164.107628, 0};
Point(227) = {-6423.311859, 152.446580, 0};
Point(228) = {-6370.445095, 133.301463, 0};
Point(229) = {-6317.578331, 108.752972, 0};
Point(230) = {-6264.711567, 81.469040, 0};
Point(231) = {-6211.844802, 54.414890, 0};
Point(232) = {-6158.978038, 30.530771, 0};
Point(233) = {-6106.111274, 12.412414, 0};
Point(234) = {-6053.244510, 2.028923, 0};
Point(235) = {-6000.377745, 0.508779, 0};
Point(236) = {-5947.510981, 8.017192, 0};
Point(237) = {-5894.644217, 23.738144, 0};
Point(238) = {-5841.777452, 45.963082, 0};
Point(239) = {-5788.910688, 72.276595, 0};
Point(240) = {-5736.043924, 99.818926, 0};
Point(241) = {-5683.177160, 125.596770, 0};
Point(242) = {-5630.310395, 146.808587, 0};
Point(243) = {-5577.443631, 161.149073, 0};
Point(244) = {-5524.576867, 167.059702, 0};
Point(245) = {-5471.710102, 163.898105, 0};
Point(246) = {-5418.843338, 152.007886, 0};
Point(247) = {-5365.976574, 132.681276, 0};
Point(248) = {-5313.109810, 108.018692, 0};
Point(249) = {-5260.243045, 80.700471, 0};
Point(250) = {-5207.376281, 53.695559, 0};
Point(251) = {-5154.509517, 29.938855, 0};
Point(252) = {-5101.642753, 12.012242, 0};
Point(253) = {-5048.775988, 1.863987, 0};
Point(254) = {-4995.909224, 0.597004, 0};
Point(255) = {-4943.042460, 8.348988, 0};
Point(256) = {-4890.175695, 24.277454, 0};
Point(257) = {-4837.308931, 46.651292, 0};
Point(258) = {-4784.442167, 73.038911, 0};
Point(259) = {-4731.575403, 100.572499, 0};
Point(260) = {-4678.708638, 126.259702, 0};
Point(261) = {-4625.841874, 147.308830, 0};
Point(262) = {-4572.975110, 161.432260, 0};
Point(263) = {-4520.108346, 167.095057, 0};
Point(264) = {-4467.241581, 163.681786, 0};
Point(265) = {-4414.374817, 151.563402, 0};
Point(266) = {-4361.508053, 132.056933, 0};
Point(267) = {-4308.641288, 107.282345, 0};
Point(268) = {-4255.774524, 79.932145, 0};
Point(269) = {-4202.907760, 52.978756, 0};
Point(270) = {-4150.040996, 29.351478, 0};
Point(271) = {-4097.174231, 11.618127, 0};
Point(272) = {-4044.307467, 1.705966, 0};
Point(273) = {-3991.440703, 0.692251, 0};
Point(274) = {-3938.573939, 8.687152, 0};
Point(275) = {-3885.707174, 24.821783, 0};
Point(276) = {-3832.840410, 47.342628, 0};
Point(277) = {-3779.973646, 73.802119, 0};
Point(278) = {-3727.106881, 101.324634, 0};
Point(279) = {-3674.240117, 126.919021, 0};
Point(280) = {-3621.373353, 147.803679, 0};
Point(281) = {-3568.506589, 161.708860, 0};
Point(282) = {-3515.639824, 167.123345, 0};
Point(283) = {-3462.773060, 163.458688, 0};
Point(284) = {-3409.906296, 151.113165, 0};
Point(285) = {-3357.039531, 131.428488, 0};
Point(286) = {-3304.172767, 106.543992, 0};
Point(287) = {-3251.306003, 79.164128, 0};
Point(288) = {-3198.439239, 52.264544, 0};
Point(289) = {-3145.572474, 28.768691, 0};
Point(290) = {-3092.705710, 11.230103, 0};
Point(291) = {-3039.838946, 1.554875, 0};
Point(292) = {-2986.972182, 0.794514, 0};
Point(293) = {-2934.105417, 9.031654, 0};
Point(294) = {-2881.238653, 25.371084, 0};
Point(295) = {-2828.371889, 48.037030, 0};
Point(296) = {-2775.505124, 74.566155, 0};
Point(297) = {-2722.638360, 102.075268, 0};
Point(298) = {-2669.771596, 127.574674, 0};
Point(299) = {-2616.904832, 148.293094, 0};
Point(300) = {-2564.038067, 161.978847, 0};
Point(301) = {-2511.171303, 167.144563, 0};
Point(302) = {-2458.304539, 163.228830, 0};
Point(303) = {-2405.437775, 150.657212, 0};
Point(304) = {-2352.571010, 130.795994, 0};
Point(305) = {-2299.704246, 105.803696, 0};
Point(306) = {-2246.837482, 78.396486, 0};
Point(307) = {-2193.970717, 51.552983, 0};
Point(308) = {-2141.103953, 28.190543, 0};
Point(309) = {-2088.237189, 10.848201, 0};
Point(310) = {-2035.370425, 1.410726, 0};
Point(311) = {-1982.503660, 0.903782, 0};
Point(312) = {-1929.636896, 9.382466, 0};
Point(313) = {-1876.770132, 25.925312, 0};
Point(314) = {-1823.903367, 48.734441, 0};
Point(315) = {-1771.036603, 75.330954, 0};
Point(316) = {-1718.169839, 102.824336, 0};
Point(317) = {-1665.303075, 128.226604, 0};
Point(318) = {-1612.436310, 148.777033, 0};
Point(319) = {-1559.569546, 162.242200, 0};
Point(320) = {-1506.702782, 167.158709, 0};
Point(321) = {-1453.836018, 162.992232, 0};
Point(322) = {-1400.969253, 150.195584, 0};
Point(323) = {-1348.102489, 130.159505, 0};
Point(324) = {-1295.235725, 105.061520, 0};
Point(325) = {-1242.368960, 77.629282, 0};
Point(326) = {-1189.502196, 50.844132, 0};
Point(327) = {-1136.635432, 27.617083, 0};
Point(328) = {-1083.768668, 10.472456, 0};
Point(329) = {-1030.901903, 1.273530, 0};
Point(330) = {-978.035139, 1.020048, 0};
Point(331) = {-925.168375, 9.739557, 0};
Point(332) = {-872.301611, 26.484419, 0};
Point(333) = {-819.434846, 49.434801, 0};
Point(334) = {-766.568082, 76.096451, 0};
Point(335) = {-713.701318, 103.571777, 0};
Point(336) = {-660.834553, 128.874755, 0};
Point(337) = {-607.967789, 149.255454, 0};
Point(338) = {-555.101025, 162.498896, 0};
Point(339) = {-502.234261, 167.165782, 0};
Point(340) = {-449.367496, 162.748914, 0};
Point(341) = {-396.500732, 149.728318, 0};
Point(342) = {-343.633968, 129.519074, 0};
Point(343) = {-290.767204, 104.317526, 0};
Point(344) = {-237.900439, 76.862582, 0};
Point(345) = {-185.033675, 50.138051, 0};
Point(346) = {-132.166911, 27.048359, 0};
Point(347) = {-79.300146, 10.102897, 0};
Point(348) = {-26.433382, 1.143301, 0};
Point(349) = {26.433382, 1.143301, 0};
Point(350) = {79.300146, 10.102897, 0};
Point(351) = {132.166911, 27.048359, 0};
Point(352) = {185.033675, 50.138051, 0};
Point(353) = {237.900439, 76.862582, 0};
Point(354) = {290.767204, 104.317526, 0};
Point(355) = {343.633968, 129.519074, 0};
Point(356) = {396.500732, 149.728318, 0};
Point(357) = {449.367496, 162.748914, 0};
Point(358) = {502.234261, 167.165782, 0};
Point(359) = {555.101025, 162.498896, 0};
Point(360) = {607.967789, 149.255454, 0};
Point(361) = {660.834553, 128.874755, 0};
Point(362) = {713.701318, 103.571777, 0};
Point(363) = {766.568082, 76.096451, 0};
Point(364) = {819.434846, 49.434801, 0};
Point(365) = {872.301611, 26.484419, 0};
Point(366) = {925.168375, 9.739557, 0};
Point(367) = {978.035139, 1.020048, 0};
Point(368) = {1030.901903, 1.273530, 0};
Point(369) = {1083.768668, 10.472456, 0};
Point(370) = {1136.635432, 27.617083, 0};
Point(371) = {1189.502196, 50.844132, 0};
Point(372) = {1242.368960, 77.629282, 0};
Point(373) = {1295.235725, 105.061520, 0};
Point(374) = {1348.102489, 130.159505, 0};
Point(375) = {1400.969253, 150.195584, 0};
Point(376) = {1453.836018, 162.992232, 0};
Point(377) = {1506.702782, 167.158709, 0};
Point(378) = {1559.569546, 162.242200, 0};
Point(379) = {1612.436310, 148.777033, 0};
Point(380) = {1665.303075, 128.226604, 0};
Point(381) = {1718.169839, 102.824336, 0};
Point(382) = {1771.036603, 75.330954, 0};
Point(383) = {1823.903367, 48.734441, 0};
Point(384) = {1876.770132, 25.925312, 0};
Point(385) = {1929.636896, 9.382466, 0};
Point(386) = {1982.503660, 0.903782, 0};
Point(387) = {2035.370425, 1.410726, 0};
Point(388) = {2088.237189, 10.848201, 0};
Point(389) = {2141.103953, 28.190543, 0};
Point(390) = {2193.970717, 51.552983, 0};
Point(391) = {2246.837482, 78.396486, 0};
Point(392) = {2299.704246, 105.803696, 0};
Point(393) = {2352.571010, 130.795994, 0};
Point(394) = {2405.437775, 150.657212, 0};
Point(395) = {2458.304539, 163.228830, 0};
Point(396) = {2511.171303, 167.144563, 0};
Point(397) = {2564.038067, 161.978847, 0};
Point(398) = {2616.904832, 148.293094, 0};
Point(399) = {2669.771596, 127.574674, 0};
Point(400) = {2722.638360, 102.075268, 0};
Point(401) = {2775.505124, 74.566155, 0};
Point(402) = {2828.371889, 48.037030, 0};
Point(403) = {2881.238653, 25.371084, 0};
Point(404) = {2934.105417, 9.031654, 0};
Point(405) = {2986.972182, 0.794514, 0};
Point(406) = {3039.838946, 1.554875, 0};
Point(407) = {3092.705710, 11.230103, 0};
Point(408) = {3145.572474, 28.768691, 0};
Point(409) = {3198.439239, 52.264544, 0};
Point(410) = {3251.306003, 79.164128, 0};
Point(411) = {3304.172767, 106.543992, 0};
Point(412) = {3357.039531, 131.428488, 0};
Point(413) = {3409.906296, 151.113165, 0};
Point(414) = {3462.773060, 163.458688, 0};
Point(415) = {3515.639824, 167.123345, 0};
Point(416) = {3568.506589, 161.708860, 0};
Point(417) = {3621.373353, 147.803679, 0};
Point(418) = {3674.240117, 126.919021, 0};
Point(419) = {3727.106881, 101.324634, 0};
Point(420) = {3779.973646, 73.802119, 0};
Point(421) = {3832.840410, 47.342628, 0};
Point(422) = {3885.707174, 24.821783, 0};
Point(423) = {3938.573939, 8.687152, 0};
Point(424) = {3991.440703, 0.692251, 0};
Point(425) = {4044.307467, 1.705966, 0};
Point(426) = {4097.174231, 11.618127, 0};
Point(427) = {4150.040996, 29.351478, 0};
Point(428) = {4202.907760, 52.978756, 0};
Point(429) = {4255.774524, 79.932145, 0};
Point(430) = {4308.641288, 107.282345, 0};
Point(431) = {4361.508053, 132.056933, 0};
Point(432) = {4414.374817, 151.563402, 0};
Point(433) = {4467.241581, 163.681786, 0};
Point(434) = {4520.108346, 167.095057, 0};
Point(435) = {4572.975110, 161.432260, 0};
Point(436) = {4625.841874, 147.308830, 0};
Point(437) = {4678.708638, 126.259702, 0};
Point(438) = {4731.575403, 100.572499, 0};
Point(439) = {4784.442167, 73.038911, 0};
Point(440) = {4837.308931, 46.651292, 0};
Point(441) = {4890.175695, 24.277454, 0};
Point(442) = {4943.042460, 8.348988, 0};
Point(443) = {4995.909224, 0.597004, 0};
Point(444) = {5048.775988, 1.863987, 0};
Point(445) = {5101.642753, 12.012242, 0};
Point(446) = {5154.509517, 29.938855, 0};
Point(447) = {5207.376281, 53.695559, 0};
Point(448) = {5260.243045, 80.700471, 0};
Point(449) = {5313.109810, 108.018692, 0};
Point(450) = {5365.976574, 132.681276, 0};
Point(451) = {5418.843338, 152.007886, 0};
Point(452) = {5471.710102, 163.898105, 0};
Point(453) = {5524.576867, 167.059702, 0};
Point(454) = {5577.443631, 161.149073, 0};
Point(455) = {5630.310395, 146.808587, 0};
Point(456) = {5683.177160, 125.596770, 0};
Point(457) = {5736.043924, 99.818926, 0};
Point(458) = {5788.910688, 72.276595, 0};
Point(459) = {5841.777452, 45.963082, 0};
Point(460) = {5894.644217, 23.738144, 0};
Point(461) = {5947.510981, 8.017192, 0};
Point(462) = {6000.377745, 0.508779, 0};
Point(463) = {6053.244510, 2.028923, 0};
Point(464) = {6106.111274, 12.412414, 0};
Point(465) = {6158.978038, 30.530771, 0};
Point(466) = {6211.844802, 54.414890, 0};
Point(467) = {6264.711567, 81.469040, 0};
Point(468) = {6317.578331, 108.752972, 0};
Point(469) = {6370.445095, 133.301463, 0};
Point(470) = {6423.311859, 152.446580, 0};
Point(471) = {6476.178624, 164.107628, 0};
Point(472) = {6529.045388, 167.017282, 0};
Point(473) = {6581.912152, 160.859321, 0};
Point(474) = {6634.778917, 146.302994, 0};
Point(475) = {6687.645681, 124.930283, 0};
Point(476) = {6740.512445, 99.063979, 0};
Point(477) = {6793.379209, 71.515236, 0};
Point(478) = {6846.245974, 45.278056, 0};
Point(479) = {6899.112738, 23.203899, 0};
Point(480) = {6951.979502, 7.691790, 0};
Point(481) = {7004.846266, 0.427585, 0};
Point(482) = {7057.713031, 2.200761, 0};
Point(483) = {7110.579795, 12.818608, 0};
Point(484) = {7163.446559, 31.127177, 0};
Point(485) = {7216.313324, 55.136690, 0};
Point(486) = {7269.180088, 82.237789, 0};
Point(487) = {7322.046852, 109.485121, 0};
Point(488) = {7374.913616, 133.917443, 0};
Point(489) = {7427.780381, 152.879446, 0};
Point(490) = {7480.647145, 164.310336, 0};
Point(491) = {7533.513909, 166.967802, 0};
Point(492) = {7586.380673, 160.563030, 0};
Point(493) = {7639.247438, 145.792093, 0};
Point(494) = {7692.114202, 124.260297, 0};
Point(495) = {7744.980966, 98.307722, 0};
Point(496) = {7797.847731, 70.754898, 0};
Point(497) = {7850.714495, 44.596271, 0};
Point(498) = {7903.581259, 22.674764, 0};
Point(499) = {7956.448023, 7.372810, 0};
Point(500) = {8009.314788, 0.353429, 0};
Point(501) = {8062.181552, 2.379487, 0};
Point(502) = {8115.048316, 13.230792, 0};
Point(503) = {8167.915081, 31.728023, 0};
Point(504) = {8220.781845, 55.860898, 0};
Point(505) = {8273.648609, 83.006651, 0};
Point(506) = {8326.515373, 110.215078, 0};
Point(507) = {8379.382138, 134.529163, 0};
Point(508) = {8432.248902, 153.306447, 0};
Point(509) = {8485.115666, 164.506212, 0};
Point(510) = {8537.982430, 166.911265, 0};
Point(511) = {8590.849195, 160.260224, 0};
Point(512) = {8643.715959, 145.275927, 0};
Point(513) = {8696.582723, 123.586868, 0};
Point(514) = {8749.449488, 97.550219, 0};
Point(515) = {8802.316252, 69.995646, 0};
Point(516) = {8855.183016, 43.917786, 0};
Point(517) = {8908.049780, 22.150783, 0};
Point(518) = {8960.916545, 7.060281, 0};
Point(519) = {9013.783309, 0.286316, 0};
Point(520) = {9066.650073, 2.565084, 0};
Point(521) = {9119.516837, 13.648929, 0};
Point(522) = {9172.383602, 32.333257, 0};
Point(523) = {9225.250366, 56.587451, 0};
Point(524) = {9278.117130, 83.775562, 0};
Point(525) = {9330.983895, 110.942782, 0};
Point(526) = {9383.850659, 135.136572, 0};
Point(527) = {9436.717423, 153.727548, 0};
Point(528) = {9489.584187, 164.695239, 0};
Point(529) = {9542.450952, 166.847675, 0};
Point(530) = {9595.317716, 159.950929, 0};
Point(531) = {9648.184480, 144.754540, 0};
Point(532) = {9701.051245, 122.910054, 0};
Point(533) = {9753.918009, 96.791534, 0};
Point(534) = {9806.784773, 69.237544, 0};
Point(535) = {9859.651537, 43.242657, 0};
Point(536) = {9912.518302, 21.632002, 0};
Point(537) = {9965.385066, 6.754227, 0};
Point(538) = {10018.251830, 0.226252, 0};
Point(539) = {10071.118594, 2.757538, 0};
Point(540) = {10123.985359, 14.072985, 0};
Point(541) = {10176.852123, 32.942828, 0};
Point(542) = {10229.718887, 57.316289, 0};
Point(543) = {10282.585652, 84.544457, 0};
Point(544) = {10335.452416, 111.668170, 0};
Point(545) = {10388.319180, 135.739618, 0};
Point(546) = {10441.185944, 154.142713, 0};
Point(547) = {10494.052709, 164.877403, 0};
Point(548) = {10546.919473, 166.777040, 0};
Point(549) = {10599.786237, 159.635171, 0};
Point(550) = {10652.653001, 144.227977, 0};
Point(551) = {10705.519766, 122.229912, 0};
Point(552) = {10758.386530, 96.031731, 0};
Point(553) = {10811.253294, 68.480656, 0};
Point(554) = {10864.120059, 42.570943, 0};
Point(555) = {10916.986823, 21.118463, 0};
Point(556) = {10969.853587, 6.454675, 0};
Point(557) = {11022.720351, 0.173242, 0};
Point(558) = {11075.587116, 2.956832, 0};
Point(559) = {11128.453880, 14.502923, 0};
Point(560) = {11181.320644, 33.556684, 0};
Point(561) = {11234.187408, 58.047350, 0};
Point(562) = {11287.054173, 85.313271, 0};
Point(563) = {11339.920937, 112.391181, 0};
Point(564) = {11392.787701, 136.338250, 0};
Point(565) = {11445.654466, 154.551906, 0};
Point(566) = {11498.521230, 165.052686, 0};
Point(567) = {11551.387994, 166.699364, 0};
Point(568) = {11604.254758, 159.312977, 0};
Point(569) = {11657.121523, 143.696281, 0};
Point(570) = {11709.988287, 121.546499, 0};
Point(571) = {11762.855051, 95.270875, 0};
Point(572) = {11815.721816, 67.725046, 0};
Point(573) = {11868.588580, 41.902699, 0};
Point(574) = {11921.455344, 20.610210, 0};
Point(575) = {11974.322108, 6.161650, 0};
Point(576) = {12027.188873, 0.127292, 0};
Point(577) = {12080.055637, 3.162949, 0};
Point(578) = {12132.922401, 14.938707, 0};
Point(579) = {12185.789165, 34.174775, 0};
Point(580) = {12238.655930, 58.780572, 0};
Point(581) = {12291.522694, 86.081938, 0};
Point(582) = {12344.389458, 113.111755, 0};
Point(583) = {12397.256223, 136.932418, 0};
Point(584) = {12450.122987, 154.955094, 0};
Point(585) = {12502.989751, 165.221075, 0};
Point(586) = {12555.856515, 166.614654, 0};
Point(587) = {12608.723280, 158.984374, 0};
Point(588) = {12661.590044, 143.159498, 0};
Point(589) = {12714.456808, 120.859874, 0};
Point(590) = {12767.323572, 94.509029, 0};
Point(591) = {12820.190337, 66.970779, 0};
Point(592) = {12873.057101, 41.237983, 0};
Point(593) = {12925.923865, 20.107287, 0};
Point(594) = {12978.790630, 5.875178, 0};
Point(595) = {13031.657394, 0.088404, 0};
Point(596) = {13084.524158, 3.375873, 0};
Point(597) = {13137.390922, 15.380301, 0};
Point(598) = {13190.257687, 34.797046, 0};
Point(599) = {13243.124451, 59.515893, 0};
Point(600) = {13295.991215, 86.850393, 0};
Point(601) = {13348.857980, 113.829829, 0};
Point(602) = {13401.724744, 137.522071, 0};
Point(603) = {13454.591508, 155.352241, 0};
Point(604) = {13507.458272, 165.382555, 0};
Point(605) = {13560.325037, 166.522917, 0};
Point(606) = {13613.191801, 158.649390, 0};
Point(607) = {13666.058565, 142.617673, 0};
Point(608) = {13718.925329, 120.170094, 0};
Point(609) = {13771.792094, 93.746259, 0};
Point(610) = {13824.658858, 66.217917, 0};
Point(611) = {13877.525622, 40.576850, 0};
Point(612) = {13930.392387, 19.609735, 0};
Point(613) = {13983.259151, 5.595282, 0};
Point(614) = {14036.125915, 0.056582, 0};
Point(615) = {14088.992679, 3.595584, 0};
Point(616) = {14141.859444, 15.827667, 0};
Point(617) = {14194.726208, 35.423447, 0};
Point(618) = {14247.592972, 60.253251, 0};
Point(619) = {14300.459736, 87.618573, 0};
Point(620) = {14353.326501, 114.545344, 0};
Point(621) = {14406.193265, 138.107159, 0};
Point(622) = {14459.060029, 155.743315, 0};
Point(623) = {14511.926794, 165.537113, 0};
Point(624) = {14564.793558, 166.424161, 0};
Point(625) = {14617.660322, 158.308054, 0};
Point(626) = {14670.527086, 142.070852, 0};
Point(627) = {14723.393851, 119.477217, 0};
Point(628) = {14776.260615, 92.982629, 0};
Point(629) = {14829.127379, 65.466524, 0};
Point(630) = {14881.994143, 39.919357, 0};
Point(631) = {14934.860908, 19.117598, 0};
Point(632) = {14987.727672, 5.321985, 0};
Point(633) = {15040.594436, 0.031829, 0};
Point(634) = {15093.461201, 3.822064, 0};
Point(635) = {15146.327965, 16.280766, 0};
Point(636) = {15199.194729, 36.053923, 0};
Point(637) = {15252.061493, 60.992583, 0};
Point(638) = {15304.928258, 88.386410, 0};
Point(639) = {15357.795022, 115.258238, 0};
Point(640) = {15410.661786, 138.687632, 0};
Point(641) = {15463.528551, 156.128282, 0};
Point(642) = {15516.395315, 165.684735, 0};
Point(643) = {15569.262079, 166.318394, 0};
Point(644) = {15622.128843, 157.960393, 0};
Point(645) = {15674.995608, 141.519082, 0};
Point(646) = {15727.862372, 118.781303, 0};
Point(647) = {15780.729136, 92.218204, 0};
Point(648) = {15833.595900, 64.716665, 0};
Point(649) = {15886.462665, 39.265559, 0};
Point(650) = {15939.329429, 18.630916, 0};
Point(651) = {15992.196193, 5.055312, 0};
Point(652) = {16045.062958, 0.014147, 0};
Point(653) = {16097.929722, 4.055294, 0};
Point(654) = {16150.796486, 16.739562, 0};
Point(655) = {16203.663250, 36.688421, 0};
Point(656) = {16256.530015, 61.733828, 0};
Point(657) = {16309.396779, 89.153842, 0};
Point(658) = {16362.263543, 115.968452, 0};
Point(659) = {16415.130307, 139.263443, 0};
Point(660) = {16467.997072, 156.507110, 0};
Point(661) = {16520.863836, 165.825409, 0};
Point(662) = {16573.730600, 166.205626, 0};