// This geofile was created by '/home/l.martire/Documents/SPECFEM/specfem-dg-master/EXAMPLES/mountain_scattering_with_mountains_3.00L0/prepare_geofile'.
// Synthetic topography, LTopo=1003=0.33004*L0.


// Display. //---------------//
General.Axes = 1; // Show axes.
Mesh.Lines = 1; // Display lines.
Geometry.LineNumbers = 1; // Display line numbers.
Mesh.LineNumbers = 0; // Display line numbers.
Mesh.Points = 0; // Display points.
Geometry.PointNumbers = 0; // Display point numbers.
Mesh.PointNumbers = 0; // Display point numbers
Mesh.SurfaceEdges = 1; // Display edges.
Mesh.SurfaceFaces = 1; // Display surfaces.
Geometry.SurfaceNumbers = 1; // Display surface numbers.
Mesh.SurfaceNumbers = 0; // Display surface numbers.
// Elements. //--------------//
Mesh.SubdivisionAlgorithm = 1; // Meshing algorithm: all quads.
Mesh.RecombineAll = 1; // Recombine all triangular elements.
// Meshing algorithm. //-----//
Mesh.Algorithm = 5; // 1: MeshAdapt. 5: Delaunay for quads. 8: Delaunay (experimental). 9: structured (packing of parallelograms, experimental).
Mesh.ElementOrder = 1; // Element order.
Mesh.RandomFactor = 0.000100; // Perturbate every points positions in order to avoid 3 aligned points. Default is at 1e-9, maximum is 1e-3.
// Some Variables. //--------//
dx_int_1 = 1519.515000;
dx_int_2 = 110.000000;
dx_int_3 = 132.000000;
// Geometry. //--------------//
Point(1) = {-23000.000000, -15000.000000, 0};
Point(2) = {23000.000000, -15000.000000, 0};
Point(3) = {-23000.000000, 0.000000, 0};
Point(4) = {23000.000000, 0.000000, 0};
Point(5) = {-23000.000000, 15000.000000, 0};
Point(6) = {23000.000000, 15000.000000, 0};
Line(1) = {1, 2};
Line(2) = {5, 6};
Line(3) = {1, 3};
Line(4) = {3, 5};
Line(5) = {2, 4};
Line(6) = {4, 6};
Point(7) = {-18054.000000, 0.000000, 0};
Point(8) = {-18020.535681, 16.419581, 0};
Point(9) = {-17987.071362, 64.959383, 0};
Point(10) = {-17953.607044, 143.494064, 0};
Point(11) = {-17920.142725, 248.584941, 0};
Point(12) = {-17886.678406, 375.630552, 0};
Point(13) = {-17853.214087, 519.068134, 0};
Point(14) = {-17819.749768, 672.617194, 0};
Point(15) = {-17786.285449, 829.554504, 0};
Point(16) = {-17752.821131, 983.008475, 0};
Point(17) = {-17719.356812, 1126.260043, 0};
Point(18) = {-17685.892493, 1253.036858, 0};
Point(19) = {-17652.428174, 1357.787928, 0};
Point(20) = {-17618.963855, 1435.926671, 0};
Point(21) = {-17585.499537, 1484.031737, 0};
Point(22) = {-17552.035218, 1499.996821, 0};
Point(23) = {-17518.570899, 1483.122883, 0};
Point(24) = {-17485.106580, 1434.148756, 0};
Point(25) = {-17451.642261, 1355.218801, 0};
Point(26) = {-17418.177943, 1249.789009, 0};
Point(27) = {-17384.713624, 1122.475680, 0};
Point(28) = {-17351.249305, 978.853299, 0};
Point(29) = {-17317.784986, 825.210451, 0};
Point(30) = {-17284.320667, 668.274473, 0};
Point(31) = {-17250.856348, 514.916891, 0};
Point(32) = {-17217.392030, 371.852552, 0};
Point(33) = {-17183.927711, 245.345607, 0};
Point(34) = {-17150.463392, 140.935231, 0};
Point(35) = {-17116.999073, 63.193091, 0};
Point(36) = {-17083.534754, 15.523168, 0};
Point(37) = {-17050.070436, 0.012716, 0};
Point(38) = {-17016.606117, 17.340869, 0};
Point(39) = {-16983.141798, 66.748904, 0};
Point(40) = {-16949.677479, 146.073464, 0};
Point(41) = {-16916.213160, 251.841278, 0};
Point(42) = {-16882.748842, 379.421246, 0};
Point(43) = {-16849.284523, 523.227207, 0};
Point(44) = {-16815.820204, 676.962540, 0};
Point(45) = {-16782.355885, 833.895858, 0};
Point(46) = {-16748.891566, 987.155750, 0};
Point(47) = {-16715.427247, 1130.031647, 0};
Point(48) = {-16681.962929, 1256.267650, 0};
Point(49) = {-16648.498610, 1360.336446, 0};
Point(50) = {-16615.034291, 1437.681326, 0};
Point(51) = {-16581.569972, 1484.915701, 0};
Point(52) = {-16548.105653, 1499.971389, 0};
Point(53) = {-16514.641335, 1482.189168, 0};
Point(54) = {-16481.177016, 1432.347643, 0};
Point(55) = {-16447.712697, 1352.629151, 0};
Point(56) = {-16414.248378, 1246.524212, 0};
Point(57) = {-16380.784059, 1118.678687, 0};
Point(58) = {-16347.319741, 974.690363, 0};
Point(59) = {-16313.855422, 820.863849, 0};
Point(60) = {-16280.391103, 663.934522, 0};
Point(61) = {-16246.926784, 510.773619, 0};
Point(62) = {-16213.462465, 368.087375, 0};
Point(63) = {-16179.998146, 242.123385, 0};
Point(64) = {-16146.533828, 138.397050, 0};
Point(65) = {-16113.069509, 61.450087, 0};
Point(66) = {-16079.605190, 14.651660, 0};
Point(67) = {-16046.140871, 0.050863, 0};
Point(68) = {-16012.676552, 18.287001, 0};
Point(69) = {-15979.212234, 68.561594, 0};
Point(70) = {-15945.747915, 148.673342, 0};
Point(71) = {-15912.283596, 255.114507, 0};
Point(72) = {-15878.819277, 383.224506, 0};
Point(73) = {-15845.354958, 527.393971, 0};
Point(74) = {-15811.890639, 681.310363, 0};
Point(75) = {-15778.426321, 838.234368, 0};
Point(76) = {-15744.962002, 991.294983, 0};
Point(77) = {-15711.497683, 1133.790365, 0};
Point(78) = {-15678.033364, 1259.481275, 0};
Point(79) = {-15644.569045, 1362.864268, 0};
Point(80) = {-15611.104727, 1439.412663, 0};
Point(81) = {-15577.640408, 1485.774745, 0};
Point(82) = {-15544.176089, 1499.920527, 0};
Point(83) = {-15510.711770, 1481.230627, 0};
Point(84) = {-15477.247451, 1430.523392, 0};
Point(85) = {-15443.783133, 1350.019067, 0};
Point(86) = {-15410.318814, 1243.242578, 0};
Point(87) = {-15376.854495, 1114.869192, 0};
Point(88) = {-15343.390176, 970.519808, 0};
Point(89) = {-15309.925857, 816.514843, 0};
Point(90) = {-15276.461538, 659.597490, 0};
Point(91) = {-15242.997220, 506.638460, 0};
Point(92) = {-15209.532901, 364.335148, 0};
Point(93) = {-15176.068582, 238.918384, 0};
Point(94) = {-15142.604263, 135.879609, 0};
Point(95) = {-15109.139944, 59.730432, 0};
Point(96) = {-15075.675626, 13.805087, 0};
Point(97) = {-15042.211307, 0.114440, 0};
Point(98) = {-15008.746988, 19.257945, 0};
Point(99) = {-14975.282669, 70.397391, 0};
Point(100) = {-14941.818350, 151.293610, 0};
Point(101) = {-14908.354032, 258.404518, 0};
Point(102) = {-14874.889713, 387.040203, 0};
Point(103) = {-14841.425394, 531.568282, 0};
Point(104) = {-14807.961075, 685.660514, 0};
Point(105) = {-14774.496756, 842.569886, 0};
Point(106) = {-14741.032437, 995.426034, 0};
Point(107) = {-14707.568119, 1137.536069, 0};
Point(108) = {-14674.103800, 1262.677624, 0};
Point(109) = {-14640.639481, 1365.371308, 0};
Point(110) = {-14607.175162, 1441.120622, 0};
Point(111) = {-14573.710843, 1486.608840, 0};
Point(112) = {-14540.246525, 1499.844235, 0};
Point(113) = {-14506.782206, 1480.247289, 0};
Point(114) = {-14473.317887, 1428.676065, 0};
Point(115) = {-14439.853568, 1347.388637, 0};
Point(116) = {-14406.389249, 1239.944219, 0};
Point(117) = {-14372.924930, 1111.047325, 0};
Point(118) = {-14339.460612, 966.341775, 0};
Point(119) = {-14305.996293, 812.163583, 0};
Point(120) = {-14272.531974, 655.263523, 0};
Point(121) = {-14239.067655, 502.511552, 0};
Point(122) = {-14205.603336, 360.595999, 0};
Point(123) = {-14172.139018, 235.730714, 0};
Point(124) = {-14138.674699, 133.382991, 0};
Point(125) = {-14105.210380, 58.034183, 0};
Point(126) = {-14071.746061, 12.983478, 0};
Point(127) = {-14038.281742, 0.203446, 0};
Point(128) = {-14004.817424, 20.253667, 0};
Point(129) = {-13971.353105, 72.256232, 0};
Point(130) = {-13937.888786, 153.934180, 0};
Point(131) = {-13904.424467, 261.711198, 0};
Point(132) = {-13870.960148, 390.868208, 0};
Point(133) = {-13837.495829, 535.750001, 0};
Point(134) = {-13804.031511, 690.012848, 0};
Point(135) = {-13770.567192, 846.902265, 0};
Point(136) = {-13737.102873, 999.548763, 0};
Point(137) = {-13703.638554, 1141.268632, 0};
Point(138) = {-13670.174235, 1265.856589, 0};
Point(139) = {-13636.709917, 1367.857482, 0};
Point(140) = {-13603.245598, 1442.805146, 0};
Point(141) = {-13569.781279, 1487.417957, 0};
Point(142) = {-13536.316960, 1499.742517, 0};
Point(143) = {-13502.852641, 1479.239190, 0};
Point(144) = {-13469.388323, 1426.805725, 0};
Point(145) = {-13435.924004, 1344.737949, 0};
Point(146) = {-13402.459685, 1236.629247, 0};
Point(147) = {-13368.995366, 1107.213215, 0};
Point(148) = {-13335.531047, 962.156407, 0};
Point(149) = {-13302.066728, 807.810214, 0};
Point(150) = {-13268.602410, 650.932769, 0};
Point(151) = {-13235.138091, 498.393037, 0};
Point(152) = {-13201.673772, 356.870054, 0};
Point(153) = {-13168.209453, 232.560482, 0};
Point(154) = {-13134.745134, 130.907283, 0};
Point(155) = {-13101.280816, 56.361398, 0};
Point(156) = {-13067.816497, 12.186860, 0};
Point(157) = {-13034.352178, 0.317876, 0};
Point(158) = {-13000.887859, 21.274135, 0};
Point(159) = {-12967.423540, 74.138055, 0};
Point(160) = {-12933.959222, 156.594962, 0};
Point(161) = {-12900.494903, 265.034435, 0};
Point(162) = {-12867.030584, 394.708390, 0};
Point(163) = {-12833.566265, 539.938984, 0};
Point(164) = {-12800.101946, 694.367215, 0};
Point(165) = {-12766.637627, 851.231358, 0};
Point(166) = {-12733.173309, 1003.663030, 0};
Point(167) = {-12699.708990, 1144.987927, 0};
Point(168) = {-12666.244671, 1269.018061, 0};
Point(169) = {-12632.780352, 1370.322705, 0};
Point(170) = {-12599.316033, 1444.466178, 0};
Point(171) = {-12565.851715, 1488.202068, 0};
Point(172) = {-12532.387396, 1499.615376, 0};
Point(173) = {-12498.923077, 1478.206363, 0};
Point(174) = {-12465.458758, 1424.912435, 0};
Point(175) = {-12431.994439, 1342.067095, 0};
Point(176) = {-12398.530120, 1233.297773, 0};
Point(177) = {-12365.065802, 1103.366992, 0};
Point(178) = {-12331.601483, 957.963844, 0};
Point(179) = {-12298.137164, 803.454885, 0};
Point(180) = {-12264.672845, 646.605374, 0};
Point(181) = {-12231.208526, 494.283053, 0};
Point(182) = {-12197.744208, 353.157440, 0};
Point(183) = {-12164.279889, 229.407796, 0};
Point(184) = {-12130.815570, 128.452567, 0};
Point(185) = {-12097.351251, 54.712134, 0};
Point(186) = {-12063.886932, 11.415261, 0};
Point(187) = {-12030.422614, 0.457727, 0};
Point(188) = {-11996.958295, 22.319312, 0};
Point(189) = {-11963.493976, 76.042796, 0};
Point(190) = {-11930.029657, 159.275866, 0};
Point(191) = {-11896.565338, 268.374117, 0};
Point(192) = {-11863.101019, 398.560621, 0};
Point(193) = {-11829.636701, 544.135091, 0};
Point(194) = {-11796.172382, 698.723469, 0};
Point(195) = {-11762.708063, 855.557018, 0};
Point(196) = {-11729.243744, 1007.768695, 0};
Point(197) = {-11695.779425, 1148.693829, 0};
Point(198) = {-11662.315107, 1272.161934, 0};
Point(199) = {-11628.850788, 1372.766893, 0};
Point(200) = {-11595.386469, 1446.103661, 0};
Point(201) = {-11561.922150, 1488.961148, 0};
Point(202) = {-11528.457831, 1499.462816, 0};
Point(203) = {-11494.993513, 1477.148843, 0};
Point(204) = {-11461.529194, 1422.996259, 0};
Point(205) = {-11428.064875, 1339.376165, 0};
Point(206) = {-11394.600556, 1229.949911, 0};
Point(207) = {-11361.136237, 1099.508787, 0};
Point(208) = {-11327.671918, 953.764229, 0};
Point(209) = {-11294.207600, 799.097743, 0};
Point(210) = {-11260.743281, 642.281485, 0};
Point(211) = {-11227.278962, 490.181741, 0};
Point(212) = {-11193.814643, 349.458282, 0};
Point(213) = {-11160.350324, 226.272762, 0};
Point(214) = {-11126.886006, 126.018927, 0};
Point(215) = {-11093.421687, 53.086446, 0};
Point(216) = {-11059.957368, 10.668707, 0};
Point(217) = {-11026.493049, 0.622994, 0};
Point(218) = {-10993.028730, 23.389165, 0};
Point(219) = {-10959.564411, 77.970390, 0};
Point(220) = {-10926.100093, 161.976801, 0};
Point(221) = {-10892.635774, 271.730130, 0};
Point(222) = {-10859.171455, 402.424768, 0};
Point(223) = {-10825.707136, 548.338178, 0};
Point(224) = {-10792.242817, 703.081462, 0};
Point(225) = {-10758.778499, 859.879099, 0};
Point(226) = {-10725.314180, 1011.865620, 0};
Point(227) = {-10691.849861, 1152.386211, 0};
Point(228) = {-10658.385542, 1275.288101, 0};
Point(229) = {-10624.921223, 1375.189963, 0};
Point(230) = {-10591.456905, 1447.717540, 0};
Point(231) = {-10557.992586, 1489.695171, 0};
Point(232) = {-10524.528267, 1499.284843, 0};
Point(233) = {-10491.063948, 1476.066667, 0};
Point(234) = {-10457.599629, 1421.057263, 0};
Point(235) = {-10424.135310, 1336.665249, 0};
Point(236) = {-10390.670992, 1226.585775, 0};
Point(237) = {-10357.206673, 1095.638731, 0};
Point(238) = {-10323.742354, 949.557705, 0};
Point(239) = {-10290.278035, 794.738936, 0};
Point(240) = {-10256.813716, 637.961248, 0};
Point(241) = {-10223.349398, 486.089239, 0};
Point(242) = {-10189.885079, 345.772707, 0};
Point(243) = {-10156.420760, 223.155488, 0};
Point(244) = {-10122.956441, 123.606446, 0};
Point(245) = {-10089.492122, 51.484390, 0};
Point(246) = {-10056.027804, 9.947222, 0};
Point(247) = {-10022.563485, 0.813672, 0};
Point(248) = {-9989.099166, 24.483657, 0};
Point(249) = {-9955.634847, 79.920773, 0};
Point(250) = {-9922.170528, 164.697675, 0};
Point(251) = {-9888.706209, 275.102361, 0};
Point(252) = {-9855.241891, 406.300701, 0};
Point(253) = {-9821.777572, 552.548103, 0};
Point(254) = {-9788.313253, 707.441045, 0};
Point(255) = {-9754.848934, 864.197454, 0};
Point(256) = {-9721.384615, 1015.953665, 0};
Point(257) = {-9687.920297, 1156.064949, 0};
Point(258) = {-9654.455978, 1278.396456, 0};
Point(259) = {-9620.991659, 1377.591834, 0};
Point(260) = {-9587.527340, 1449.307760, 0};
Point(261) = {-9554.063021, 1490.404111, 0};
Point(262) = {-9520.598703, 1499.081462, 0};
Point(263) = {-9487.134384, 1474.959870, 0};
Point(264) = {-9453.670065, 1419.095512, 0};
Point(265) = {-9420.205746, 1333.934440, 0};
Point(266) = {-9386.741427, 1223.205477, 0};
Point(267) = {-9353.277108, 1091.756954, 0};
Point(268) = {-9319.812790, 945.344414, 0};
Point(269) = {-9286.348471, 790.378613, 0};
Point(270) = {-9252.884152, 633.644811, 0};
Point(271) = {-9219.419833, 482.005685, 0};
Point(272) = {-9185.955514, 342.100838, 0};
Point(273) = {-9152.491196, 220.056079, 0};
Point(274) = {-9119.026877, 121.215206, 0};
Point(275) = {-9085.562558, 49.906019, 0};
Point(276) = {-9052.098239, 9.250833, 0};
Point(277) = {-9018.633920, 1.029755, 0};
Point(278) = {-8985.169601, 25.602750, 0};
Point(279) = {-8951.705283, 81.893876, 0};
Point(280) = {-8918.240964, 167.438396, 0};
Point(281) = {-8884.776645, 278.490695, 0};
Point(282) = {-8851.312326, 410.188289, 0};
Point(283) = {-8817.848007, 556.764724, 0};
Point(284) = {-8784.383689, 711.802072, 0};
Point(285) = {-8750.919370, 868.511937, 0};
Point(286) = {-8717.455051, 1020.032692, 0};
Point(287) = {-8683.990732, 1159.729918, 0};
Point(288) = {-8650.526413, 1281.486894, 0};
Point(289) = {-8617.062095, 1379.972424, 0};
Point(290) = {-8583.597776, 1450.874267, 0};
Point(291) = {-8550.133457, 1491.087945, 0};
Point(292) = {-8516.669138, 1498.852680, 0};
Point(293) = {-8483.204819, 1473.828490, 0};
Point(294) = {-8449.740500, 1417.111072, 0};
Point(295) = {-8416.276182, 1331.183830, 0};
Point(296) = {-8382.811863, 1219.809134, 0};
Point(297) = {-8349.347544, 1087.863588, 0};
Point(298) = {-8315.883225, 941.124500, 0};
Point(299) = {-8282.418906, 786.016920, 0};
Point(300) = {-8248.954588, 629.332319, 0};
Point(301) = {-8215.490269, 477.931219, 0};
Point(302) = {-8182.025950, 338.442801, 0};
Point(303) = {-8148.561631, 216.974639, 0};
Point(304) = {-8115.097312, 118.845286, 0};
Point(305) = {-8081.632994, 48.351389, 0};
Point(306) = {-8048.168675, 8.579561, 0};
Point(307) = {-8014.704356, 1.271234, 0};
Point(308) = {-7981.240037, 26.746407, 0};
Point(309) = {-7947.775718, 83.889635, 0};
Point(310) = {-7914.311399, 170.198871, 0};
Point(311) = {-7880.847081, 281.895018, 0};
Point(312) = {-7847.382762, 414.087399, 0};
Point(313) = {-7813.918443, 560.987897, 0};
Point(314) = {-7780.454124, 716.164394, 0};
Point(315) = {-7746.989805, 872.822401, 0};
Point(316) = {-7713.525487, 1024.102562, 0};
Point(317) = {-7680.061168, 1163.380993, 0};
Point(318) = {-7646.596849, 1284.559309, 0};
Point(319) = {-7613.132530, 1382.331653, 0};
Point(320) = {-7579.668211, 1452.417008, 0};
Point(321) = {-7546.203892, 1491.746649, 0};
Point(322) = {-7512.739574, 1498.598505, 0};
Point(323) = {-7479.275255, 1472.672566, 0};
Point(324) = {-7445.810936, 1415.104011, 0};
Point(325) = {-7412.346617, 1328.413513, 0};
Point(326) = {-7378.882298, 1216.396861, 0};
Point(327) = {-7345.417980, 1083.958766, 0};
Point(328) = {-7311.953661, 936.898104, 0};
Point(329) = {-7278.489342, 781.654006, 0};
Point(330) = {-7245.025023, 625.023919, 0};
Point(331) = {-7211.560704, 473.865979, 0};
Point(332) = {-7178.096386, 334.798719, 0};
Point(333) = {-7144.632067, 213.911274, 0};
Point(334) = {-7111.167748, 116.496769, 0};
Point(335) = {-7077.703429, 46.820550, 0};
Point(336) = {-7044.239110, 7.933430, 0};
Point(337) = {-7010.774791, 1.538101, 0};
Point(338) = {-6977.310473, 27.914588, 0};
Point(339) = {-6943.846154, 85.907981, 0};
Point(340) = {-6910.381835, 172.979007, 0};
Point(341) = {-6876.917516, 285.315214, 0};
Point(342) = {-6843.453197, 417.997900, 0};
Point(343) = {-6809.988879, 565.217479, 0};
Point(344) = {-6776.524560, 720.527863, 0};
Point(345) = {-6743.060241, 877.128701, 0};
Point(346) = {-6709.595922, 1028.163138, 0};
Point(347) = {-6676.131603, 1167.018050, 0};
Point(348) = {-6642.667285, 1287.613598, 0};
Point(349) = {-6609.202966, 1384.669439, 0};
Point(350) = {-6575.738647, 1453.935930, 0};
Point(351) = {-6542.274328, 1492.380201, 0};
Point(352) = {-6508.810009, 1498.318947, 0};
Point(353) = {-6475.345690, 1471.492137, 0};
Point(354) = {-6441.881372, 1413.074398, 0};
Point(355) = {-6408.417053, 1325.623582, 0};
Point(356) = {-6374.952734, 1212.968772, 0};
Point(357) = {-6341.488415, 1080.042620, 0};
Point(358) = {-6308.024096, 932.665371, 0};
Point(359) = {-6274.559778, 777.290018, 0};
Point(360) = {-6241.095459, 620.719757, 0};
Point(361) = {-6207.631140, 469.810102, 0};
Point(362) = {-6174.166821, 331.168716, 0};
Point(363) = {-6140.702502, 210.866088, 0};
Point(364) = {-6107.238184, 114.169733, 0};
Point(365) = {-6073.773865, 45.313556, 0};
Point(366) = {-6040.309546, 7.312462, 0};
Point(367) = {-6006.845227, 1.830349, 0};
Point(368) = {-5973.380908, 29.107255, 0};
Point(369) = {-5939.916589, 87.948845, 0};
Point(370) = {-5906.452271, 175.778709, 0};
Point(371) = {-5872.987952, 288.751167, 0};
Point(372) = {-5839.523633, 421.919658, 0};
Point(373) = {-5806.059314, 569.453328, 0};
Point(374) = {-5772.594995, 724.892332, 0};
Point(375) = {-5739.130677, 881.430689, 0};
Point(376) = {-5705.666358, 1032.214282, 0};
Point(377) = {-5672.202039, 1170.640967, 0};
Point(378) = {-5638.737720, 1290.649657, 0};
Point(379) = {-5605.273401, 1386.985704, 0};
Point(380) = {-5571.809082, 1455.430983, 0};
Point(381) = {-5538.344764, 1492.988580, 0};
Point(382) = {-5504.880445, 1498.014013, 0};
Point(383) = {-5471.416126, 1470.287242, 0};
Point(384) = {-5437.951807, 1411.022300, 0};
Point(385) = {-5404.487488, 1322.814132, 0};
Point(386) = {-5371.023170, 1209.524984, 0};
Point(387) = {-5337.558851, 1076.115282, 0};
Point(388) = {-5304.094532, 928.426444, 0};
Point(389) = {-5270.630213, 772.925105, 0};
Point(390) = {-5237.165894, 616.419979, 0};
Point(391) = {-5203.701576, 465.763727, 0};
Point(392) = {-5170.237257, 327.552916, 0};
Point(393) = {-5136.772938, 207.839182, 0};
Point(394) = {-5103.308619, 111.864258, 0};
Point(395) = {-5069.844300, 43.830457, 0};
Point(396) = {-5036.379981, 6.716677, 0};
Point(397) = {-5002.915663, 2.147966, 0};
Point(398) = {-4969.451344, 30.324366, 0};
Point(399) = {-4935.987025, 90.012159, 0};
Point(400) = {-4902.522706, 178.597882, 0};
Point(401) = {-4869.058387, 292.202760, 0};
Point(402) = {-4835.594069, 425.852542, 0};
Point(403) = {-4802.129750, 573.695298, 0};
Point(404) = {-4768.665431, 729.257652, 0};
Point(405) = {-4735.201112, 885.728221, 0};
Point(406) = {-4701.736793, 1036.255856, 0};
Point(407) = {-4668.272475, 1174.249620, 0};
Point(408) = {-4634.808156, 1293.667383, 0};
Point(409) = {-4601.343837, 1389.280370, 0};
Point(410) = {-4567.879518, 1456.902116, 0};
Point(411) = {-4534.415199, 1493.571764, 0};
Point(412) = {-4500.950880, 1497.683715, 0};
Point(413) = {-4467.486562, 1469.057924, 0};
Point(414) = {-4434.022243, 1408.947787, 0};
Point(415) = {-4400.557924, 1319.985259, 0};
Point(416) = {-4367.093605, 1206.065614, 0};
Point(417) = {-4333.629286, 1072.176886, 0};
Point(418) = {-4300.164968, 924.181466, 0};
Point(419) = {-4266.700649, 768.559415, 0};
Point(420) = {-4233.236330, 612.124730, 0};
Point(421) = {-4199.772011, 461.726989, 0};
Point(422) = {-4166.307692, 323.951440, 0};
Point(423) = {-4132.843373, 204.830661, 0};
Point(424) = {-4099.379055, 109.580421, 0};
Point(425) = {-4065.914736, 42.371304, 0};
Point(426) = {-4032.450417, 6.146097, 0};
Point(427) = {-3998.986098, 2.490942, 0};
Point(428) = {-3965.521779, 31.565881, 0};
Point(429) = {-3932.057461, 92.097853, 0};
Point(430) = {-3898.593142, 181.436431, 0};
Point(431) = {-3865.128823, 295.669877, 0};
Point(432) = {-3831.664504, 429.796417, 0};
Point(433) = {-3798.200185, 577.943246, 0};
Point(434) = {-3764.735867, 733.623675, 0};
Point(435) = {-3731.271548, 890.021151, 0};
Point(436) = {-3697.807229, 1040.287723, 0};
Point(437) = {-3664.342910, 1177.843888, 0};
Point(438) = {-3630.878591, 1296.666673, 0};
Point(439) = {-3597.414272, 1391.553359, 0};
Point(440) = {-3563.949954, 1458.349278, 0};
Point(441) = {-3530.485635, 1494.129735, 0};
Point(442) = {-3497.021316, 1497.328064, 0};
Point(443) = {-3463.556997, 1467.804223, 0};
Point(444) = {-3430.092678, 1406.850930, 0};
Point(445) = {-3396.628360, 1317.137059, 0};
Point(446) = {-3363.164041, 1202.590780, 0};
Point(447) = {-3329.699722, 1068.227565, 0};
Point(448) = {-3296.235403, 919.930582, 0};
Point(449) = {-3262.771084, 764.193095, 0};
Point(450) = {-3229.306766, 607.834156, 0};
Point(451) = {-3195.842447, 457.700026, 0};
Point(452) = {-3162.378128, 320.364411, 0};
Point(453) = {-3128.913809, 201.840626, 0};
Point(454) = {-3095.449490, 107.318300, 0};
Point(455) = {-3061.985171, 40.936145, 0};
Point(456) = {-3028.520853, 5.600740, 0};
Point(457) = {-2995.056534, 2.859266, 0};
Point(458) = {-2961.592215, 32.831758, 0};
Point(459) = {-2928.127896, 94.205855, 0};
Point(460) = {-2894.663577, 184.294259, 0};
Point(461) = {-2861.199259, 299.152400, 0};
Point(462) = {-2827.734940, 433.751150, 0};
Point(463) = {-2794.270621, 582.197029, 0};
Point(464) = {-2760.806302, 737.990254, 0};
Point(465) = {-2727.341983, 894.309332, 0};
Point(466) = {-2693.877665, 1044.309747, 0};
Point(467) = {-2660.413346, 1181.423648, 0};
Point(468) = {-2626.949027, 1299.647427, 0};
Point(469) = {-2593.484708, 1393.804593, 0};
Point(470) = {-2560.020389, 1459.772421, 0};
Point(471) = {-2526.556070, 1494.662474, 0};
Point(472) = {-2493.091752, 1496.947071, 0};
Point(473) = {-2459.627433, 1466.526182, 0};
Point(474) = {-2426.163114, 1404.731800, 0};
Point(475) = {-2392.698795, 1314.269627, 0};
Point(476) = {-2359.234476, 1199.100598, 0};
Point(477) = {-2325.770158, 1064.267454, 0};
Point(478) = {-2292.305839, 915.673936, 0};
Point(479) = {-2258.841520, 759.826295, 0};
Point(480) = {-2225.377201, 603.548403, 0};
Point(481) = {-2191.912882, 453.682975, 0};
Point(482) = {-2158.448563, 316.791951, 0};
Point(483) = {-2124.984245, 198.869179, 0};
Point(484) = {-2091.519926, 105.077972, 0};
Point(485) = {-2058.055607, 39.525030, 0};
Point(486) = {-2024.591288, 5.080625, 0};
Point(487) = {-1991.126969, 3.252924, 0};
Point(488) = {-1957.662651, 34.121953, 0};
Point(489) = {-1924.198332, 96.336095, 0};
Point(490) = {-1890.734013, 187.171270, 0};
Point(491) = {-1857.269694, 302.650210, 0};
Point(492) = {-1823.805375, 437.716607, 0};
Point(493) = {-1790.341057, 586.456502, 0};
Point(494) = {-1756.876738, 742.357240, 0};
Point(495) = {-1723.412419, 898.592620, 0};
Point(496) = {-1689.948100, 1048.321791, 0};
Point(497) = {-1656.483781, 1184.988778, 0};
Point(498) = {-1623.019462, 1302.609543, 0};
Point(499) = {-1589.555144, 1396.033996, 0};
Point(500) = {-1556.090825, 1461.171496, 0};
Point(501) = {-1522.626506, 1495.169961, 0};
Point(502) = {-1489.162187, 1496.540751, 0};
Point(503) = {-1455.697868, 1465.223844, 0};
Point(504) = {-1422.233550, 1402.590468, 0};
Point(505) = {-1388.769231, 1311.383061, 0};
Point(506) = {-1355.304912, 1195.595188, 0};
Point(507) = {-1321.840593, 1060.296686, 0};
Point(508) = {-1288.376274, 911.411673, 0};
Point(509) = {-1254.911956, 755.459161, 0};
Point(510) = {-1221.447637, 599.267616, 0};
Point(511) = {-1187.983318, 449.675972, 0};
Point(512) = {-1154.518999, 313.234180, 0};
Point(513) = {-1121.054680, 195.916420, 0};
Point(514) = {-1087.590361, 102.859513, 0};
Point(515) = {-1054.126043, 38.138007, 0};
Point(516) = {-1020.661724, 4.585770, 0};
Point(517) = {-987.197405, 3.671904, 0};
Point(518) = {-953.733086, 35.436423, 0};
Point(519) = {-920.268767, 98.488500, 0};
Point(520) = {-886.804449, 190.067366, 0};
Point(521) = {-853.340130, 306.163190, 0};
Point(522) = {-819.875811, 441.692652, 0};
Point(523) = {-786.411492, 590.721521, 0};
Point(524) = {-752.947173, 746.724485, 0};
Point(525) = {-719.482854, 902.870870, 0};
Point(526) = {-686.018536, 1052.323719, 0};
Point(527) = {-652.554217, 1188.539159, 0};
Point(528) = {-619.089898, 1305.552920, 0};
Point(529) = {-585.625579, 1398.241493, 0};
Point(530) = {-552.161260, 1462.546455, 0};
Point(531) = {-518.696942, 1495.652180, 0};
Point(532) = {-485.232623, 1496.109115, 0};
Point(533) = {-451.768304, 1463.897253, 0};
Point(534) = {-418.303985, 1400.427008, 0};
Point(535) = {-384.839666, 1308.477460, 0};
Point(536) = {-351.375348, 1192.074669, 0};
Point(537) = {-317.911029, 1056.315396, 0};
Point(538) = {-284.446710, 907.143935, 0};
Point(539) = {-250.982391, 751.091841, 0};
Point(540) = {-217.518072, 594.991940, 0};
Point(541) = {-184.053753, 445.679153, 0};
Point(542) = {-150.589435, 309.691220, 0};
Point(543) = {-117.125116, 192.982449, 0};
Point(544) = {-83.660797, 100.662997, 0};
Point(545) = {-50.196478, 36.775123, 0};
Point(546) = {-16.732159, 4.116191, 0};
Point(547) = {16.732159, 4.116191, 0};
Point(548) = {50.196478, 36.775123, 0};
Point(549) = {83.660797, 100.662997, 0};
Point(550) = {117.125116, 192.982449, 0};
Point(551) = {150.589435, 309.691220, 0};
Point(552) = {184.053753, 445.679153, 0};
Point(553) = {217.518072, 594.991940, 0};
Point(554) = {250.982391, 751.091841, 0};
Point(555) = {284.446710, 907.143935, 0};
Point(556) = {317.911029, 1056.315396, 0};
Point(557) = {351.375348, 1192.074669, 0};
Point(558) = {384.839666, 1308.477460, 0};
Point(559) = {418.303985, 1400.427008, 0};
Point(560) = {451.768304, 1463.897253, 0};
Point(561) = {485.232623, 1496.109115, 0};
Point(562) = {518.696942, 1495.652180, 0};
Point(563) = {552.161260, 1462.546455, 0};
Point(564) = {585.625579, 1398.241493, 0};
Point(565) = {619.089898, 1305.552920, 0};
Point(566) = {652.554217, 1188.539159, 0};
Point(567) = {686.018536, 1052.323719, 0};
Point(568) = {719.482854, 902.870870, 0};
Point(569) = {752.947173, 746.724485, 0};
Point(570) = {786.411492, 590.721521, 0};
Point(571) = {819.875811, 441.692652, 0};
Point(572) = {853.340130, 306.163190, 0};
Point(573) = {886.804449, 190.067366, 0};
Point(574) = {920.268767, 98.488500, 0};
Point(575) = {953.733086, 35.436423, 0};
Point(576) = {987.197405, 3.671904, 0};
Point(577) = {1020.661724, 4.585770, 0};
Point(578) = {1054.126043, 38.138007, 0};
Point(579) = {1087.590361, 102.859513, 0};
Point(580) = {1121.054680, 195.916420, 0};
Point(581) = {1154.518999, 313.234180, 0};
Point(582) = {1187.983318, 449.675972, 0};
Point(583) = {1221.447637, 599.267616, 0};
Point(584) = {1254.911956, 755.459161, 0};
Point(585) = {1288.376274, 911.411673, 0};
Point(586) = {1321.840593, 1060.296686, 0};
Point(587) = {1355.304912, 1195.595188, 0};
Point(588) = {1388.769231, 1311.383061, 0};
Point(589) = {1422.233550, 1402.590468, 0};
Point(590) = {1455.697868, 1465.223844, 0};
Point(591) = {1489.162187, 1496.540751, 0};
Point(592) = {1522.626506, 1495.169961, 0};
Point(593) = {1556.090825, 1461.171496, 0};
Point(594) = {1589.555144, 1396.033996, 0};
Point(595) = {1623.019462, 1302.609543, 0};
Point(596) = {1656.483781, 1184.988778, 0};
Point(597) = {1689.948100, 1048.321791, 0};
Point(598) = {1723.412419, 898.592620, 0};
Point(599) = {1756.876738, 742.357240, 0};
Point(600) = {1790.341057, 586.456502, 0};
Point(601) = {1823.805375, 437.716607, 0};
Point(602) = {1857.269694, 302.650210, 0};
Point(603) = {1890.734013, 187.171270, 0};
Point(604) = {1924.198332, 96.336095, 0};
Point(605) = {1957.662651, 34.121953, 0};
Point(606) = {1991.126969, 3.252924, 0};
Point(607) = {2024.591288, 5.080625, 0};
Point(608) = {2058.055607, 39.525030, 0};
Point(609) = {2091.519926, 105.077972, 0};
Point(610) = {2124.984245, 198.869179, 0};
Point(611) = {2158.448563, 316.791951, 0};
Point(612) = {2191.912882, 453.682975, 0};
Point(613) = {2225.377201, 603.548403, 0};
Point(614) = {2258.841520, 759.826295, 0};
Point(615) = {2292.305839, 915.673936, 0};
Point(616) = {2325.770158, 1064.267454, 0};
Point(617) = {2359.234476, 1199.100598, 0};
Point(618) = {2392.698795, 1314.269627, 0};
Point(619) = {2426.163114, 1404.731800, 0};
Point(620) = {2459.627433, 1466.526182, 0};
Point(621) = {2493.091752, 1496.947071, 0};
Point(622) = {2526.556070, 1494.662474, 0};
Point(623) = {2560.020389, 1459.772421, 0};
Point(624) = {2593.484708, 1393.804593, 0};
Point(625) = {2626.949027, 1299.647427, 0};
Point(626) = {2660.413346, 1181.423648, 0};
Point(627) = {2693.877665, 1044.309747, 0};
Point(628) = {2727.341983, 894.309332, 0};
Point(629) = {2760.806302, 737.990254, 0};
Point(630) = {2794.270621, 582.197029, 0};
Point(631) = {2827.734940, 433.751150, 0};
Point(632) = {2861.199259, 299.152400, 0};
Point(633) = {2894.663577, 184.294259, 0};
Point(634) = {2928.127896, 94.205855, 0};
Point(635) = {2961.592215, 32.831758, 0};
Point(636) = {2995.056534, 2.859266, 0};
Point(637) = {3028.520853, 5.600740, 0};
Point(638) = {3061.985171, 40.936145, 0};
Point(639) = {3095.449490, 107.318300, 0};
Point(640) = {3128.913809, 201.840626, 0};
Point(641) = {3162.378128, 320.364411, 0};
Point(642) = {3195.842447, 457.700026, 0};
Point(643) = {3229.306766, 607.834156, 0};
Point(644) = {3262.771084, 764.193095, 0};
Point(645) = {3296.235403, 919.930582, 0};
Point(646) = {3329.699722, 1068.227565, 0};